<?xml version="1.0" encoding="UTF-8"?>

<net version="1.20" junctionCornerDetail="5" limitTurnSpeed="5.50" xmlns:xsi="http://www.w3.org/2001/XMLSchema-instance" xsi:noNamespaceSchemaLocation="http://sumo.dlr.de/xsd/net_file.xsd">

    <location netOffset="0.00,0.00" convBoundary="-200.00,-200.00,400.00,200.00" origBoundary="10000000000.00,10000000000.00,-10000000000.00,-10000000000.00" projParameter="!"/>

    <edge id=":J1_0" function="internal">
        <lane id=":J1_0_0" index="0" speed="6.51" length="9.03" shape="-8.00,13.60 -8.35,11.15 -9.40,9.40 -11.15,8.35 -13.60,8.00"/>
    </edge>
    <edge id=":J1_1" function="internal">
        <lane id=":J1_1_0" index="0" speed="13.89" length="27.20" shape="-4.80,13.60 -4.80,-13.60"/>
    </edge>
    <edge id=":J1_2" function="internal">
        <lane id=":J1_2_0" index="0" speed="10.36" length="24.51" shape="-1.60,13.60 -0.65,6.95 2.20,2.20 6.95,-0.65 13.60,-1.60"/>
    </edge>
    <edge id=":J1_3" function="internal">
        <lane id=":J1_3_0" index="0" speed="6.51" length="9.03" shape="13.60,8.00 11.15,8.35 9.40,9.40 8.35,11.15 8.00,13.60"/>
    </edge>
    <edge id=":J1_4" function="internal">
        <lane id=":J1_4_0" index="0" speed="13.89" length="27.20" shape="13.60,4.80 -13.60,4.80"/>
    </edge>
    <edge id=":J1_5" function="internal">
        <lane id=":J1_5_0" index="0" speed="10.36" length="24.51" shape="13.60,1.60 6.95,0.65 2.20,-2.20 -0.65,-6.95 -1.60,-13.60"/>
    </edge>
    <edge id=":J1_6" function="internal">
        <lane id=":J1_6_0" index="0" speed="6.51" length="9.03" shape="8.00,-13.60 8.35,-11.15 9.40,-9.40 11.15,-8.35 13.60,-8.00"/>
    </edge>
    <edge id=":J1_7" function="internal">
        <lane id=":J1_7_0" index="0" speed="13.89" length="27.20" shape="4.80,-13.60 4.80,13.60"/>
    </edge>
    <edge id=":J1_8" function="internal">
        <lane id=":J1_8_0" index="0" speed="10.36" length="24.51" shape="1.60,-13.60 0.65,-6.95 -2.20,-2.20 -6.95,0.65 -13.60,1.60"/>
    </edge>
    <edge id=":J1_9" function="internal">
        <lane id=":J1_9_0" index="0" speed="6.51" length="9.03" shape="-13.60,-8.00 -11.15,-8.35 -9.40,-9.40 -8.35,-11.15 -8.00,-13.60"/>
    </edge>
    <edge id=":J1_10" function="internal">
        <lane id=":J1_10_0" index="0" speed="13.89" length="27.20" shape="-13.60,-4.80 13.60,-4.80"/>
    </edge>
    <edge id=":J1_11" function="internal">
        <lane id=":J1_11_0" index="0" speed="10.36" length="24.51" shape="-13.60,-1.60 -6.95,-0.65 -2.20,2.20 0.65,6.95 1.60,13.60"/>
    </edge>
    <edge id=":J4_0" function="internal">
        <lane id=":J4_0_0" index="0" speed="6.51" length="9.03" shape="192.00,13.60 191.65,11.15 190.60,9.40 188.85,8.35 186.40,8.00"/>
    </edge>
    <edge id=":J4_1" function="internal">
        <lane id=":J4_1_0" index="0" speed="13.89" length="27.20" shape="195.20,13.60 195.20,-13.60"/>
    </edge>
    <edge id=":J4_2" function="internal">
        <lane id=":J4_2_0" index="0" speed="10.36" length="12.07" shape="198.40,13.60 199.35,6.95 202.10,2.36"/>
    </edge>
    <edge id=":J4_12" function="internal">
        <lane id=":J4_12_0" index="0" speed="10.36" length="12.44" shape="202.10,2.36 202.20,2.20 206.95,-0.65 213.60,-1.60"/>
    </edge>
    <edge id=":J4_3" function="internal">
        <lane id=":J4_3_0" index="0" speed="6.51" length="9.03" shape="213.60,8.00 211.15,8.35 209.40,9.40 208.35,11.15 208.00,13.60"/>
    </edge>
    <edge id=":J4_4" function="internal">
        <lane id=":J4_4_0" index="0" speed="13.89" length="27.20" shape="213.60,4.80 186.40,4.80"/>
    </edge>
    <edge id=":J4_5" function="internal">
        <lane id=":J4_5_0" index="0" speed="10.36" length="24.51" shape="213.60,1.60 206.95,0.65 202.20,-2.20 199.35,-6.95 198.40,-13.60"/>
    </edge>
    <edge id=":J4_6" function="internal">
        <lane id=":J4_6_0" index="0" speed="6.51" length="9.03" shape="208.00,-13.60 208.35,-11.15 209.40,-9.40 211.15,-8.35 213.60,-8.00"/>
    </edge>
    <edge id=":J4_7" function="internal">
        <lane id=":J4_7_0" index="0" speed="13.89" length="27.20" shape="204.80,-13.60 204.80,13.60"/>
    </edge>
    <edge id=":J4_8" function="internal">
        <lane id=":J4_8_0" index="0" speed="10.36" length="12.07" shape="201.60,-13.60 200.65,-6.95 197.90,-2.36"/>
    </edge>
    <edge id=":J4_13" function="internal">
        <lane id=":J4_13_0" index="0" speed="10.36" length="12.44" shape="197.90,-2.36 197.80,-2.20 193.05,0.65 186.40,1.60"/>
    </edge>
    <edge id=":J4_9" function="internal">
        <lane id=":J4_9_0" index="0" speed="6.51" length="9.03" shape="186.40,-8.00 188.85,-8.35 190.60,-9.40 191.65,-11.15 192.00,-13.60"/>
    </edge>
    <edge id=":J4_10" function="internal">
        <lane id=":J4_10_0" index="0" speed="13.89" length="27.20" shape="186.40,-4.80 213.60,-4.80"/>
    </edge>
    <edge id=":J4_11" function="internal">
        <lane id=":J4_11_0" index="0" speed="10.36" length="24.51" shape="186.40,-1.60 193.05,-0.65 197.80,2.20 200.65,6.95 201.60,13.60"/>
    </edge>

    <edge id="-E0" from="J1" to="J0" priority="-1">
        <lane id="-E0_0" index="0" speed="13.89" length="186.40" shape="-13.60,8.00 -200.00,8.00"/>
        <lane id="-E0_1" index="1" speed="13.89" length="186.40" shape="-13.60,4.80 -200.00,4.80"/>
        <lane id="-E0_2" index="2" speed="13.89" length="186.40" shape="-13.60,1.60 -200.00,1.60"/>
    </edge>
    <edge id="-E1" from="J2" to="J1" priority="-1">
        <lane id="-E1_0" index="0" speed="13.89" length="186.40" shape="-8.00,200.00 -8.00,13.60"/>
        <lane id="-E1_1" index="1" speed="13.89" length="186.40" shape="-4.80,200.00 -4.80,13.60"/>
        <lane id="-E1_2" index="2" speed="13.89" length="186.40" shape="-1.60,200.00 -1.60,13.60"/>
    </edge>
    <edge id="-E2" from="J3" to="J1" priority="-1">
        <lane id="-E2_0" index="0" speed="13.89" length="186.40" shape="8.00,-200.00 8.00,-13.60"/>
        <lane id="-E2_1" index="1" speed="13.89" length="186.40" shape="4.80,-200.00 4.80,-13.60"/>
        <lane id="-E2_2" index="2" speed="13.89" length="186.40" shape="1.60,-200.00 1.60,-13.60"/>
    </edge>
    <edge id="-E3" from="J4" to="J1" priority="-1">
        <lane id="-E3_0" index="0" speed="13.89" length="172.80" shape="186.40,8.00 13.60,8.00"/>
        <lane id="-E3_1" index="1" speed="13.89" length="172.80" shape="186.40,4.80 13.60,4.80"/>
        <lane id="-E3_2" index="2" speed="13.89" length="172.80" shape="186.40,1.60 13.60,1.60"/>
    </edge>
    <edge id="-E4" from="J5" to="J4" priority="-1">
        <lane id="-E4_0" index="0" speed="13.89" length="186.40" shape="192.00,200.00 192.00,13.60"/>
        <lane id="-E4_1" index="1" speed="13.89" length="186.40" shape="195.20,200.00 195.20,13.60"/>
        <lane id="-E4_2" index="2" speed="13.89" length="186.40" shape="198.40,200.00 198.40,13.60"/>
    </edge>
    <edge id="-E5" from="J6" to="J4" priority="-1">
        <lane id="-E5_0" index="0" speed="13.89" length="186.40" shape="208.00,-200.00 208.00,-13.60"/>
        <lane id="-E5_1" index="1" speed="13.89" length="186.40" shape="204.80,-200.00 204.80,-13.60"/>
        <lane id="-E5_2" index="2" speed="13.89" length="186.40" shape="201.60,-200.00 201.60,-13.60"/>
    </edge>
    <edge id="-E6" from="J7" to="J4" priority="-1">
        <lane id="-E6_0" index="0" speed="13.89" length="186.40" shape="400.00,8.00 213.60,8.00"/>
        <lane id="-E6_1" index="1" speed="13.89" length="186.40" shape="400.00,4.80 213.60,4.80"/>
        <lane id="-E6_2" index="2" speed="13.89" length="186.40" shape="400.00,1.60 213.60,1.60"/>
    </edge>
    <edge id="E0" from="J0" to="J1" priority="-1">
        <lane id="E0_0" index="0" speed="13.89" length="186.40" shape="-200.00,-8.00 -13.60,-8.00"/>
        <lane id="E0_1" index="1" speed="13.89" length="186.40" shape="-200.00,-4.80 -13.60,-4.80"/>
        <lane id="E0_2" index="2" speed="13.89" length="186.40" shape="-200.00,-1.60 -13.60,-1.60"/>
    </edge>
    <edge id="E1" from="J1" to="J2" priority="-1">
        <lane id="E1_0" index="0" speed="13.89" length="186.40" shape="8.00,13.60 8.00,200.00"/>
        <lane id="E1_1" index="1" speed="13.89" length="186.40" shape="4.80,13.60 4.80,200.00"/>
        <lane id="E1_2" index="2" speed="13.89" length="186.40" shape="1.60,13.60 1.60,200.00"/>
    </edge>
    <edge id="E2" from="J1" to="J3" priority="-1">
        <lane id="E2_0" index="0" speed="13.89" length="186.40" shape="-8.00,-13.60 -8.00,-200.00"/>
        <lane id="E2_1" index="1" speed="13.89" length="186.40" shape="-4.80,-13.60 -4.80,-200.00"/>
        <lane id="E2_2" index="2" speed="13.89" length="186.40" shape="-1.60,-13.60 -1.60,-200.00"/>
    </edge>
    <edge id="E3" from="J1" to="J4" priority="-1">
        <lane id="E3_0" index="0" speed="13.89" length="172.80" shape="13.60,-8.00 186.40,-8.00"/>
        <lane id="E3_1" index="1" speed="13.89" length="172.80" shape="13.60,-4.80 186.40,-4.80"/>
        <lane id="E3_2" index="2" speed="13.89" length="172.80" shape="13.60,-1.60 186.40,-1.60"/>
    </edge>
    <edge id="E4" from="J4" to="J5" priority="-1">
        <lane id="E4_0" index="0" speed="13.89" length="186.40" shape="208.00,13.60 208.00,200.00"/>
        <lane id="E4_1" index="1" speed="13.89" length="186.40" shape="204.80,13.60 204.80,200.00"/>
        <lane id="E4_2" index="2" speed="13.89" length="186.40" shape="201.60,13.60 201.60,200.00"/>
    </edge>
    <edge id="E5" from="J4" to="J6" priority="-1">
        <lane id="E5_0" index="0" speed="13.89" length="186.40" shape="192.00,-13.60 192.00,-200.00"/>
        <lane id="E5_1" index="1" speed="13.89" length="186.40" shape="195.20,-13.60 195.20,-200.00"/>
        <lane id="E5_2" index="2" speed="13.89" length="186.40" shape="198.40,-13.60 198.40,-200.00"/>
    </edge>
    <edge id="E6" from="J4" to="J7" priority="-1">
        <lane id="E6_0" index="0" speed="13.89" length="186.40" shape="213.60,-8.00 400.00,-8.00"/>
        <lane id="E6_1" index="1" speed="13.89" length="186.40" shape="213.60,-4.80 400.00,-4.80"/>
        <lane id="E6_2" index="2" speed="13.89" length="186.40" shape="213.60,-1.60 400.00,-1.60"/>
    </edge>

    <tlLogic id="J1" type="static" programID="0" offset="0">
        <phase duration="70" state="GGGrrrGGGrrr"/>
        <phase duration="3"  state="yyyrrryyyrrr"/>
        <phase duration="2"  state="rrrrrrrrrrrr"/>
        <phase duration="60" state="rrrGGGrrrGGG"/>
        <phase duration="3"  state="rrryyyrrryyy"/>
        <phase duration="2"  state="rrrrrrrrrrrr"/>
    </tlLogic>
    <tlLogic id="J3" type="static" programID="0" offset="0">
        <phase duration="70" state="GGgrrrGGgrrr"/>
        <phase duration="3"  state="yyyrrryyyrrr"/>
        <phase duration="2"  state="rrrrrrrrrrrr"/>
        <phase duration="60" state="rrrGGGrrrGGG"/>
        <phase duration="3"  state="rrryyyrrryyy"/>
        <phase duration="2"  state="rrrrrrrrrrrr"/>
    </tlLogic>

    <junction id="J0" type="dead_end" x="-200.00" y="0.00" incLanes="-E0_0 -E0_1 -E0_2" intLanes="" shape="-200.00,0.00 -200.00,9.60 -200.00,0.00"/>
    <junction id="J1" type="traffic_light" x="0.00" y="0.00" incLanes="-E1_0 -E1_1 -E1_2 -E3_0 -E3_1 -E3_2 -E2_0 -E2_1 -E2_2 E0_0 E0_1 E0_2" intLanes=":J1_0_0 :J1_1_0 :J1_2_0 :J1_3_0 :J1_4_0 :J1_5_0 :J1_6_0 :J1_7_0 :J1_8_0 :J1_9_0 :J1_10_0 :J1_11_0" shape="-9.60,13.60 9.60,13.60 10.04,11.38 10.60,10.60 11.38,10.04 12.38,9.71 13.60,9.60 13.60,-9.60 11.38,-10.04 10.60,-10.60 10.04,-11.38 9.71,-12.38 9.60,-13.60 -9.60,-13.60 -10.04,-11.38 -10.60,-10.60 -11.38,-10.04 -12.38,-9.71 -13.60,-9.60 -13.60,9.60 -11.38,10.04 -10.60,10.60 -10.04,11.38 -9.71,12.38">
        <request index="0"  response="000000000000" foes="000000000000" cont="0"/>
        <request index="1"  response="000000000000" foes="110100010000" cont="0"/>
        <request index="2"  response="000010000000" foes="100010110000" cont="0"/>
        <request index="3"  response="000000000000" foes="000000000000" cont="0"/>
        <request index="4"  response="000010000110" foes="100010000110" cont="0"/>
        <request index="5"  response="010110000100" foes="010110000100" cont="0"/>
        <request index="6"  response="000000000000" foes="000000000000" cont="0"/>
        <request index="7"  response="000000000000" foes="010000110100" cont="0"/>
        <request index="8"  response="000000000010" foes="110000100010" cont="0"/>
        <request index="9"  response="000000000000" foes="000000000000" cont="0"/>
        <request index="10" response="000110000010" foes="000110100010" cont="0"/>
        <request index="11" response="000100010110" foes="000100010110" cont="0"/>
    </junction>
    <junction id="J2" type="dead_end" x="0.00" y="200.00" incLanes="E1_0 E1_1 E1_2" intLanes="" shape="0.00,200.00 9.60,200.00 0.00,200.00"/>
    <junction id="J3" type="dead_end" x="0.00" y="-200.00" incLanes="E2_0 E2_1 E2_2" intLanes="" shape="0.00,-200.00 -9.60,-200.00 0.00,-200.00"/>
    <junction id="J4" type="traffic_light" x="200.00" y="0.00" incLanes="-E4_0 -E4_1 -E4_2 -E6_0 -E6_1 -E6_2 -E5_0 -E5_1 -E5_2 E3_0 E3_1 E3_2" intLanes=":J4_0_0 :J4_1_0 :J4_12_0 :J4_3_0 :J4_4_0 :J4_5_0 :J4_6_0 :J4_7_0 :J4_13_0 :J4_9_0 :J4_10_0 :J4_11_0" shape="190.40,13.60 209.60,13.60 210.04,11.38 210.60,10.60 211.38,10.04 212.38,9.71 213.60,9.60 213.60,-9.60 211.38,-10.04 210.60,-10.60 210.04,-11.38 209.71,-12.38 209.60,-13.60 190.40,-13.60 189.96,-11.38 189.40,-10.60 188.62,-10.04 187.62,-9.71 186.40,-9.60 186.40,9.60 188.62,10.04 189.40,10.60 189.96,11.38 190.29,12.38">
        <request index="0"  response="000000000000" foes="000000000000" cont="0"/>
        <request index="1"  response="000000000000" foes="110100010000" cont="0"/>
        <request index="2"  response="000010000000" foes="100010110000" cont="1"/>
        <request index="3"  response="000000000000" foes="000000000000" cont="0"/>
        <request index="4"  response="000010000110" foes="100010000110" cont="0"/>
        <request index="5"  response="010110000100" foes="010110000100" cont="0"/>
        <request index="6"  response="000000000000" foes="000000000000" cont="0"/>
        <request index="7"  response="000000000000" foes="010000110100" cont="0"/>
        <request index="8"  response="000000000010" foes="110000100010" cont="1"/>
        <request index="9"  response="000000000000" foes="000000000000" cont="0"/>
        <request index="10" response="000110000010" foes="000110100010" cont="0"/>
        <request index="11" response="000100010110" foes="000100010110" cont="0"/>
    </junction>
    <junction id="J5" type="dead_end" x="200.00" y="200.00" incLanes="E4_0 E4_1 E4_2" intLanes="" shape="200.00,200.00 209.60,200.00 200.00,200.00"/>
    <junction id="J6" type="dead_end" x="200.00" y="-200.00" incLanes="E5_0 E5_1 E5_2" intLanes="" shape="200.00,-200.00 190.40,-200.00 200.00,-200.00"/>
    <junction id="J7" type="dead_end" x="400.00" y="0.00" incLanes="E6_0 E6_1 E6_2" intLanes="" shape="400.00,0.00 400.00,-9.60 400.00,0.00"/>

    <junction id=":J4_12_0" type="internal" x="202.10" y="2.36" incLanes=":J4_2_0 -E5_1" intLanes=":J4_4_0 :J4_5_0 :J4_7_0 :J4_11_0"/>
    <junction id=":J4_13_0" type="internal" x="197.90" y="-2.36" incLanes=":J4_8_0 -E4_1" intLanes=":J4_1_0 :J4_5_0 :J4_10_0 :J4_11_0"/>

    <connection from="-E1" to="-E0" fromLane="0" toLane="0" via=":J1_0_0" tl="J1" linkIndex="0" dir="r" state="O"/>
    <connection from="-E1" to="E2" fromLane="1" toLane="1" via=":J1_1_0" tl="J1" linkIndex="1" dir="s" state="O"/>
    <connection from="-E1" to="E3" fromLane="2" toLane="2" via=":J1_2_0" tl="J1" linkIndex="2" dir="l" state="o"/>
    <connection from="-E2" to="E3" fromLane="0" toLane="0" via=":J1_6_0" tl="J1" linkIndex="6" dir="r" state="O"/>
    <connection from="-E2" to="E1" fromLane="1" toLane="1" via=":J1_7_0" tl="J1" linkIndex="7" dir="s" state="O"/>
    <connection from="-E2" to="-E0" fromLane="2" toLane="2" via=":J1_8_0" tl="J1" linkIndex="8" dir="l" state="o"/>
    <connection from="-E3" to="E1" fromLane="0" toLane="0" via=":J1_3_0" tl="J1" linkIndex="3" dir="r" state="O"/>
    <connection from="-E3" to="-E0" fromLane="1" toLane="1" via=":J1_4_0" tl="J1" linkIndex="4" dir="s" state="o"/>
    <connection from="-E3" to="E2" fromLane="2" toLane="2" via=":J1_5_0" tl="J1" linkIndex="5" dir="l" state="o"/>
    <connection from="-E4" to="-E3" fromLane="0" toLane="0" via=":J4_0_0" tl="J3" linkIndex="0" dir="r" state="O"/>
    <connection from="-E4" to="E5" fromLane="1" toLane="1" via=":J4_1_0" tl="J3" linkIndex="1" dir="s" state="O"/>
    <connection from="-E4" to="E6" fromLane="2" toLane="2" via=":J4_2_0" tl="J3" linkIndex="2" dir="l" state="o"/>
    <connection from="-E5" to="E6" fromLane="0" toLane="0" via=":J4_6_0" tl="J3" linkIndex="6" dir="r" state="O"/>
    <connection from="-E5" to="E4" fromLane="1" toLane="1" via=":J4_7_0" tl="J3" linkIndex="7" dir="s" state="O"/>
    <connection from="-E5" to="-E3" fromLane="2" toLane="2" via=":J4_8_0" tl="J3" linkIndex="8" dir="l" state="o"/>
    <connection from="-E6" to="E4" fromLane="0" toLane="0" via=":J4_3_0" tl="J3" linkIndex="3" dir="r" state="O"/>
    <connection from="-E6" to="-E3" fromLane="1" toLane="1" via=":J4_4_0" tl="J3" linkIndex="4" dir="s" state="o"/>
    <connection from="-E6" to="E5" fromLane="2" toLane="2" via=":J4_5_0" tl="J3" linkIndex="5" dir="l" state="o"/>
    <connection from="E0" to="E2" fromLane="0" toLane="0" via=":J1_9_0" tl="J1" linkIndex="9" dir="r" state="O"/>
    <connection from="E0" to="E3" fromLane="1" toLane="1" via=":J1_10_0" tl="J1" linkIndex="10" dir="s" state="o"/>
    <connection from="E0" to="E1" fromLane="2" toLane="2" via=":J1_11_0" tl="J1" linkIndex="11" dir="l" state="o"/>
    <connection from="E3" to="E5" fromLane="0" toLane="0" via=":J4_9_0" tl="J3" linkIndex="9" dir="r" state="O"/>
    <connection from="E3" to="E6" fromLane="1" toLane="1" via=":J4_10_0" tl="J3" linkIndex="10" dir="s" state="o"/>
    <connection from="E3" to="E4" fromLane="2" toLane="2" via=":J4_11_0" tl="J3" linkIndex="11" dir="l" state="o"/>

    <connection from=":J1_0" to="-E0" fromLane="0" toLane="0" dir="r" state="M"/>
    <connection from=":J1_1" to="E2" fromLane="0" toLane="1" dir="s" state="M"/>
    <connection from=":J1_2" to="E3" fromLane="0" toLane="2" dir="l" state="M"/>
    <connection from=":J1_3" to="E1" fromLane="0" toLane="0" dir="r" state="M"/>
    <connection from=":J1_4" to="-E0" fromLane="0" toLane="1" dir="s" state="M"/>
    <connection from=":J1_5" to="E2" fromLane="0" toLane="2" dir="l" state="M"/>
    <connection from=":J1_6" to="E3" fromLane="0" toLane="0" dir="r" state="M"/>
    <connection from=":J1_7" to="E1" fromLane="0" toLane="1" dir="s" state="M"/>
    <connection from=":J1_8" to="-E0" fromLane="0" toLane="2" dir="l" state="M"/>
    <connection from=":J1_9" to="E2" fromLane="0" toLane="0" dir="r" state="M"/>
    <connection from=":J1_10" to="E3" fromLane="0" toLane="1" dir="s" state="M"/>
    <connection from=":J1_11" to="E1" fromLane="0" toLane="2" dir="l" state="M"/>
    <connection from=":J4_0" to="-E3" fromLane="0" toLane="0" dir="r" state="M"/>
    <connection from=":J4_1" to="E5" fromLane="0" toLane="1" dir="s" state="M"/>
    <connection from=":J4_2" to="E6" fromLane="0" toLane="2" via=":J4_12_0" dir="l" state="m"/>
    <connection from=":J4_12" to="E6" fromLane="0" toLane="2" dir="l" state="M"/>
    <connection from=":J4_3" to="E4" fromLane="0" toLane="0" dir="r" state="M"/>
    <connection from=":J4_4" to="-E3" fromLane="0" toLane="1" dir="s" state="M"/>
    <connection from=":J4_5" to="E5" fromLane="0" toLane="2" dir="l" state="M"/>
    <connection from=":J4_6" to="E6" fromLane="0" toLane="0" dir="r" state="M"/>
    <connection from=":J4_7" to="E4" fromLane="0" toLane="1" dir="s" state="M"/>
    <connection from=":J4_8" to="-E3" fromLane="0" toLane="2" via=":J4_13_0" dir="l" state="m"/>
    <connection from=":J4_13" to="-E3" fromLane="0" toLane="2" dir="l" state="M"/>
    <connection from=":J4_9" to="E5" fromLane="0" toLane="0" dir="r" state="M"/>
    <connection from=":J4_10" to="E6" fromLane="0" toLane="1" dir="s" state="M"/>
    <connection from=":J4_11" to="E4" fromLane="0" toLane="2" dir="l" state="M"/>

</net>
